test/data/three_phase/kersting_example_4_1/node.glm
/////////////////////////////////////////////
// BEGIN
/////////////////////////////////////////////

clock {
	timezone EST+8EDT;
	timestamp '2000-01-01 0:00:00';
	stoptime '2000-01-01 0:00:01';
}

module powerflow{ 
     solver_method NR; 
     default_maximum_voltage_error 1e-6;
}; 

// Phase Conductor: 336,400 26/7 ACSR
object overhead_line_conductor:2 {
	name olc2;
	geometric_mean_radius 0.0244 ft;
	resistance 0.306;
}

// Neutral Conductor: 4/0 6/1 ACSR
object overhead_line_conductor:3 {
	name olc3;
	geometric_mean_radius 0.00814 ft;
	resistance 0.5920;
}

object line_spacing:5 { 
     distance_AB 2.5 ft; 
     distance_BC 4.5 ft; 
     distance_AC 7.0 ft;
     distance_AN 4.272002 ft;
     distance_BN 5.656854 ft;
     distance_CN 5.0 ft;
     distance_AE 29.0 ft; 
     distance_BE 29.0 ft; 
     distance_CE 29.0 ft;
     distance_NE 24.0 ft;
} 

object line_configuration:6 { 
     conductor_A olc2; 
     conductor_B olc2; 
     conductor_C olc2;
     conductor_N olc3;
     spacing line_spacing:5; 
} 

object node {
    name node1;
    phases "ABC";
    voltage_A +7199.558+0.000j;
    voltage_B -3599.779-6235.000j;
    voltage_C -3599.779+6235.000j;
    nominal_voltage 7200;
    bustype SWING;
}

object overhead_line {
     phases "ABCN";
     name line14;
     from node1;
     to load4;
     length 2000;
     configuration line_configuration:6;
}

object load {
    name load4;
    phases "ABC";
    constant_power_A +1800000.000+871779.789j;
    constant_power_B +1800000.000+871779.789j;
    constant_power_C +1800000.000+871779.789j;
    nominal_voltage 7200;
}

///////////////////////////////
// END
///////////////////////////////

object voltdump {
     filename result.csv;
     mode RECT;
}
